28
../../data/IsoP.pdb
C          2.08800        1.25300       -8.98500
H          1.79500        0.25100       -9.22000
H          1.93600        1.87800       -9.84000
C          3.56700        1.27400       -8.59400
C          4.63602        0.80018       -9.59683
H          5.46459        0.34343       -9.05601
H          4.19767        0.06921      -10.27669
H          5.00161        1.65358      -10.16887
C          3.93340        1.70558       -7.37916
H          3.19041        2.03457       -6.68279
C          5.41186        1.72763       -6.98894
H          6.00264        1.36516       -7.80428
H          5.70474        2.72957       -6.75425
H          5.56483        1.10177       -6.13391
C          1.97112        5.60259       -8.06098
H          2.31521        5.64467       -7.04860
H          2.75808        5.91040       -8.71889
H          1.13206        6.25664       -8.18010
C          1.55400        4.16977       -8.39948
C          1.01795        3.83552       -9.80396
H          0.27842        3.03676       -9.73061
H          0.55206        4.72152      -10.23595
H          1.84084        3.51089      -10.43983
C          1.65591        3.20643       -7.47398
H          2.02812        3.43884       -6.49843
C          1.23800        1.77400       -7.81200
H          1.38757        1.14738       -6.95757
H          0.20422        1.75943       -8.08739
28
../../data/IsoP.pdb
C          2.08800        1.25300       -8.98500
H          1.79500        0.25100       -9.22000
H          1.93600        1.87800       -9.84000
C          3.56700        1.27400       -8.59400
C          4.56726        2.11706       -9.40746
H          5.53981        1.62535       -9.40938
H          4.20819        2.21828      -10.43191
H          4.66055        3.10566       -8.95675
C          3.99297        0.55972       -7.54294
H          3.29776       -0.02587       -6.97818
C          5.47111        0.58178       -7.15155
H          6.01020        1.21523       -7.82484
H          5.57120        0.95487       -6.15378
H          5.86887       -0.41087       -7.20272
C         -2.64930        2.14601       -7.72224
H         -2.74936        1.77498       -8.72095
H         -3.18828        1.51066       -7.04939
H         -3.04664        3.13862       -7.66891
C         -1.17016        2.16617       -7.33071
C         -0.75025        2.66065       -5.93400
H          0.22546        3.14464       -5.99747
H         -1.48571        3.37589       -5.56494
H         -0.69167        1.81418       -5.25066
C         -0.24100        1.75300       -8.20300
H         -0.53286        1.40972       -9.17317
C          1.23800        1.77400       -7.81200
H          1.53100        2.77600       -7.57700
H          1.39000        1.14900       -6.95700
28
../../data/IsoP.pdb
C          2.08800        1.25300       -8.98500
H          1.79500        0.25100       -9.22000
H          1.93600        1.87800       -9.84000
C          3.56700        1.27400       -8.59400
C          4.24335        2.60321       -8.20835
H          5.28935        2.58062       -8.51331
H          3.73558        3.42784       -8.70920
H          4.18238        2.74233       -7.12849
C          4.27469        0.13582       -8.58583
H          3.80445       -0.78733       -8.85389
C          5.75269        0.15682       -8.19383
H          6.04696        1.15898       -7.96085
H          5.90451       -0.46735       -7.33818
H          6.34361       -0.20618       -9.00945
C          1.02388        0.25400       -4.22016
H          1.71453       -0.52608       -4.46420
H          1.41683        0.83994       -3.41445
H          0.08958       -0.17646       -3.92386
C          0.80944        1.14751       -5.44377
C         -0.14545        2.35276       -5.35899
H         -0.62070        2.50938       -6.32847
H         -0.91125        2.15809       -4.60776
H          0.41691        3.24388       -5.08235
C          1.45304        0.88128       -6.58825
H          2.11615        0.04397       -6.64698
C          1.23800        1.77400       -7.81200
H          0.20400        1.75964       -8.08717
H          1.53015        2.77638       -7.57826
28
../../data/IsoP.pdb
C          2.08800        1.25300       -8.98500
H          1.79500        0.25100       -9.22000
H          1.93600        1.87800       -9.84000
C          3.56700        1.27400       -8.59400
C          4.38058       -0.03406       -8.58576
H          5.13826        0.01415       -7.80396
H          3.71374       -0.87536       -8.39544
H          4.86484       -0.16717       -9.55372
C          4.15582        2.43059       -8.25942
H          3.59023        3.33903       -8.26520
C          5.63444        2.45157       -7.86978
H          6.03187        1.45923       -7.91990
H          6.17258        3.08553       -8.54302
H          5.73531        2.82439       -6.87128
C          1.02388        0.25400       -4.22016
H          1.71453       -0.52608       -4.46420
H          1.41683        0.83994       -3.41445
H          0.08958       -0.17646       -3.92386
C          0.80944        1.14751       -5.44377
C         -0.14545        2.35276       -5.35899
H         -0.62070        2.50938       -6.32847
H         -0.91125        2.15809       -4.60776
H          0.41691        3.24388       -5.08235
C          1.45304        0.88128       -6.58825
H          2.11615        0.04397       -6.64698
C          1.23800        1.77400       -7.81200
H          0.20400        1.75964       -8.08717
H          1.53015        2.77638       -7.57826
28
../../data/IsoP.pdb
C          2.08800        1.25300       -8.98500
H          1.79500        0.25100       -9.22000
H          1.93600        1.87800       -9.84000
C          3.56700        1.27400       -8.59400
C          4.56726        2.11706       -9.40746
H          5.53981        1.62535       -9.40938
H          4.20819        2.21828      -10.43191
H          4.66055        3.10566       -8.95675
C          3.99297        0.55972       -7.54294
H          3.29776       -0.02587       -6.97818
C          5.47111        0.58178       -7.15155
H          6.01020        1.21523       -7.82484
H          5.57120        0.95487       -6.15378
H          5.86887       -0.41087       -7.20272
C          1.46223        5.29848       -6.14308
H          2.24864        5.60557       -6.80060
H          0.62224        5.95227       -6.26093
H          1.80668        5.34141       -5.13040
C          1.04489        3.86543       -6.48035
C         -0.07615        3.18075       -5.67653
H          0.12456        2.11036       -5.61120
H         -0.11433        3.60376       -4.67240
H         -1.03148        3.34105       -6.17507
C          1.65453        3.20714       -7.47530
H          2.43329        3.68285       -8.03341
C          1.23800        1.77400       -7.81200
H          1.38865        1.14821       -6.95715
H          0.20410        1.75810       -8.08688
28
../../data/IsoP.pdb
C          2.08800        1.25300       -8.98500
H          1.79500        0.25100       -9.22000
H          1.93600        1.87800       -9.84000
C          3.56700        1.27400       -8.59400
C          4.05667        0.45209       -7.38665
H          4.88781        0.96941       -6.90790
H          3.24113        0.33419       -6.67273
H          4.38667       -0.53049       -7.72546
C          4.43754        2.00668       -9.30230
H          4.09691        2.57757      -10.14090
C          5.91602        2.02661       -8.91206
H          6.06863        1.40298       -8.05591
H          6.50590        1.66331       -9.72742
H          6.21005        3.02908       -8.67800
C         -2.64930        2.14601       -7.72224
H         -2.74936        1.77498       -8.72095
H         -3.18828        1.51066       -7.04939
H         -3.04664        3.13862       -7.66891
C         -1.17016        2.16617       -7.33071
C         -0.75025        2.66065       -5.93400
H          0.22546        3.14464       -5.99747
H         -1.48571        3.37589       -5.56494
H         -0.69167        1.81418       -5.25066
C         -0.24100        1.75300       -8.20300
H         -0.53286        1.40972       -9.17317
C          1.23800        1.77400       -7.81200
H          1.53100        2.77600       -7.57700
H          1.39000        1.14900       -6.95700
28
../../data/IsoP.pdb
C          2.08800        1.25300       -8.98500
H          1.79500        0.25100       -9.22000
H          1.93600        1.87800       -9.84000
C          3.56700        1.27400       -8.59400
C          4.05667        0.45209       -7.38665
H          4.88781        0.96941       -6.90790
H          3.24113        0.33419       -6.67273
H          4.38667       -0.53049       -7.72546
C          4.43754        2.00668       -9.30230
H          4.09691        2.57757      -10.14090
C          5.91602        2.02661       -8.91206
H          6.06863        1.40298       -8.05591
H          6.50590        1.66331       -9.72742
H          6.21005        3.02908       -8.67800
C          1.46223        5.29848       -6.14308
H          2.24864        5.60557       -6.80060
H          0.62224        5.95227       -6.26093
H          1.80668        5.34141       -5.13040
C          1.04489        3.86543       -6.48035
C         -0.07615        3.18075       -5.67653
H          0.12456        2.11036       -5.61120
H         -0.11433        3.60376       -4.67240
H         -1.03148        3.34105       -6.17507
C          1.65453        3.20714       -7.47530
H          2.43329        3.68285       -8.03341
C          1.23800        1.77400       -7.81200
H          1.38865        1.14821       -6.95715
H          0.20410        1.75810       -8.08688
28
../../data/IsoP.pdb
C          2.08800        1.25300       -8.98500
H          1.79500        0.25100       -9.22000
H          1.93600        1.87800       -9.84000
C          3.56700        1.27400       -8.59400
C          4.24335        2.60321       -8.20835
H          5.28935        2.58062       -8.51331
H          3.73558        3.42784       -8.70920
H          4.18238        2.74233       -7.12849
C          4.27469        0.13582       -8.58583
H          3.80445       -0.78733       -8.85389
C          5.75269        0.15682       -8.19383
H          6.04696        1.15898       -7.96085
H          5.90451       -0.46735       -7.33818
H          6.34361       -0.20618       -9.00945
C         -2.27373        2.80302       -9.17817
H         -2.70000        1.85825       -8.91213
H         -2.79121        3.58630       -8.66282
H         -2.36575        2.95123      -10.23438
C         -0.79470        2.82451       -8.78629
C          0.05653        4.07795       -9.06184
H          1.08363        3.78006       -9.27771
H         -0.35237        4.61435       -9.91844
H          0.04315        4.72658       -8.18663
C         -0.24100        1.75300       -8.20300
H         -0.83240        0.88239       -8.01184
C          1.23800        1.77400       -7.81200
H          1.53100        2.77600       -7.57700
H          1.39000        1.14900       -6.95700
28
../../data/IsoP.pdb
C          2.08800        1.25300       -8.98500
H          1.79500        0.25100       -9.22000
H          1.93600        1.87800       -9.84000
C          3.56700        1.27400       -8.59400
C          4.24335        2.60321       -8.20835
H          5.28935        2.58062       -8.51331
H          3.73558        3.42784       -8.70920
H          4.18238        2.74233       -7.12849
C          4.27469        0.13582       -8.58583
H          3.80445       -0.78733       -8.85389
C          5.75269        0.15682       -8.19383
H          6.04696        1.15898       -7.96085
H          5.90451       -0.46735       -7.33818
H          6.34361       -0.20618       -9.00945
C          1.56282        0.50413       -4.13240
H          1.78449       -0.49272       -4.45215
H          2.37926        0.88307       -3.55211
H          0.67471        0.49793       -3.53472
C          1.34865        1.39732       -5.35628
C          1.01394        2.88911       -5.17146
H          0.36458        3.21967       -5.98346
H          0.50349        3.03215       -4.21875
H          1.93393        3.47255       -5.18211
C          1.45304        0.88128       -6.58825
H          1.68538       -0.15499       -6.71641
C          1.23800        1.77400       -7.81200
H          0.20400        1.75964       -8.08717
H          1.53015        2.77638       -7.57826
28
../../data/IsoP.pdb
C          2.08800        1.25300       -8.98500
H          1.79500        0.25100       -9.22000
H          1.93600        1.87800       -9.84000
C          3.56700        1.27400       -8.59400
C          4.24335        2.60321       -8.20835
H          5.28935        2.58062       -8.51331
H          3.73558        3.42784       -8.70920
H          4.18238        2.74233       -7.12849
C          4.27469        0.13582       -8.58583
H          3.80445       -0.78733       -8.85389
C          5.75269        0.15682       -8.19383
H          6.04696        1.15898       -7.96085
H          5.90451       -0.46735       -7.33818
H          6.34361       -0.20618       -9.00945
C          0.88222       -1.07843       -5.16727
H          1.69875       -0.70004       -4.58833
H         -0.00630       -1.08615       -4.56944
H          1.10378       -2.07561       -5.48750
C          0.66642       -0.18510       -6.39076
C         -0.45526       -0.51170       -7.39416
H         -0.14608       -0.21080       -8.39623
H         -0.65259       -1.58390       -7.38298
H         -1.36032        0.02739       -7.11645
C          1.45304        0.88128       -6.58825
H          2.23221        1.10788       -5.89126
C          1.23800        1.77400       -7.81200
H          0.20400        1.75964       -8.08717
H          1.53015        2.77638       -7.57826
28
../../data/IsoP.pdb
C          2.08800        1.25300       -8.98500
H          1.79500        0.25100       -9.22000
H          1.93600        1.87800       -9.84000
C          3.56700        1.27400       -8.59400
C          4.38058       -0.03406       -8.58576
H          5.13826        0.01415       -7.80396
H          3.71374       -0.87536       -8.39544
H          4.86484       -0.16717       -9.55372
C          4.15582        2.43059       -8.25942
H          3.59023        3.33903       -8.26520
C          5.63444        2.45157       -7.86978
H          6.03187        1.45923       -7.91990
H          6.17258        3.08553       -8.54302
H          5.73531        2.82439       -6.87128
C         -2.27373        2.80302       -9.17817
H         -2.70000        1.85825       -8.91213
H         -2.79121        3.58630       -8.66282
H         -2.36575        2.95123      -10.23438
C         -0.79470        2.82451       -8.78629
C          0.05653        4.07795       -9.06184
H          1.08363        3.78006       -9.27771
H         -0.35237        4.61435       -9.91844
H          0.04315        4.72658       -8.18663
C         -0.24100        1.75300       -8.20300
H         -0.83240        0.88239       -8.01184
C          1.23800        1.77400       -7.81200
H          1.53100        2.77600       -7.57700
H          1.39000        1.14900       -6.95700
28
../../data/IsoP.pdb
C          2.08800        1.25300       -8.98500
H          1.79500        0.25100       -9.22000
H          1.93600        1.87800       -9.84000
C          3.56700        1.27400       -8.59400
C          4.56726        2.11706       -9.40746
H          5.53981        1.62535       -9.40938
H          4.20819        2.21828      -10.43191
H          4.66055        3.10566       -8.95675
C          3.99297        0.55972       -7.54294
H          3.29776       -0.02587       -6.97818
C          5.47111        0.58178       -7.15155
H          6.01020        1.21523       -7.82484
H          5.57120        0.95487       -6.15378
H          5.86887       -0.41087       -7.20272
C         -2.27373        2.80302       -9.17817
H         -2.70000        1.85825       -8.91213
H         -2.79121        3.58630       -8.66282
H         -2.36575        2.95123      -10.23438
C         -0.79470        2.82451       -8.78629
C          0.05653        4.07795       -9.06184
H          1.08363        3.78006       -9.27771
H         -0.35237        4.61435       -9.91844
H          0.04315        4.72658       -8.18663
C         -0.24100        1.75300       -8.20300
H         -0.83240        0.88239       -8.01184
C          1.23800        1.77400       -7.81200
H          1.53100        2.77600       -7.57700
H          1.39000        1.14900       -6.95700
28
../../data/IsoP.pdb
C          2.08800        1.25300       -8.98500
H          1.79500        0.25100       -9.22000
H          1.93600        1.87800       -9.84000
C          3.56700        1.27400       -8.59400
C          4.38058       -0.03406       -8.58576
H          5.13826        0.01415       -7.80396
H          3.71374       -0.87536       -8.39544
H          4.86484       -0.16717       -9.55372
C          4.15582        2.43059       -8.25942
H          3.59023        3.33903       -8.26520
C          5.63444        2.45157       -7.86978
H          6.03187        1.45923       -7.91990
H          6.17258        3.08553       -8.54302
H          5.73531        2.82439       -6.87128
C          0.88222       -1.07843       -5.16727
H          1.69875       -0.70004       -4.58833
H         -0.00630       -1.08615       -4.56944
H          1.10378       -2.07561       -5.48750
C          0.66642       -0.18510       -6.39076
C         -0.45526       -0.51170       -7.39416
H         -0.14608       -0.21080       -8.39623
H         -0.65259       -1.58390       -7.38298
H         -1.36032        0.02739       -7.11645
C          1.45304        0.88128       -6.58825
H          2.23221        1.10788       -5.89126
C          1.23800        1.77400       -7.81200
H          0.20400        1.75964       -8.08717
H          1.53015        2.77638       -7.57826
28
../../data/IsoP.pdb
C          2.08800        1.25300       -8.98500
H          1.79500        0.25100       -9.22000
H          1.93600        1.87800       -9.84000
C          3.56700        1.27400       -8.59400
C          4.05667        0.45209       -7.38665
H          4.88781        0.96941       -6.90790
H          3.24113        0.33419       -6.67273
H          4.38667       -0.53049       -7.72546
C          4.43754        2.00668       -9.30230
H          4.09691        2.57757      -10.14090
C          5.91602        2.02661       -8.91206
H          6.06863        1.40298       -8.05591
H          6.50590        1.66331       -9.72742
H          6.21005        3.02908       -8.67800
C         -2.65847        1.54920       -7.65549
H         -2.75082        1.69716       -8.71126
H         -3.08578        0.60422       -7.38842
H         -3.17527        2.33162       -7.13901
C         -1.17921        1.56924       -7.26442
C         -0.76947        1.37744       -5.79236
H          0.13415        1.95366       -5.58812
H         -1.57385        1.72338       -5.14276
H         -0.57745        0.32198       -5.60259
C         -0.24100        1.75300       -8.20300
H         -0.52582        1.88637       -9.22542
C          1.23800        1.77400       -7.81200
H          1.53100        2.77600       -7.57700
H          1.39000        1.14900       -6.95700
