14
../../data/nitrobenzene.pdb
C          2.52871        0.00000       -0.00000
C          1.83048        1.20925       -0.00000
C          0.43238        1.21280       -0.00000
C         -0.28679       -0.00000       -0.00000
C          0.43238       -1.21280        0.00000
C          1.83048       -1.20925        0.00000
H          3.61100        0.00000        0.00000
H          2.37237        2.14626       -0.00000
H         -0.08635        2.16284       -0.00000
H         -0.08635       -2.16284        0.00000
H          2.37237       -2.14626        0.00000
N         -1.71577       -0.00000       -0.00000
O         -2.32143       -1.02947        0.00000
O         -2.32143        1.02947       -0.00000
